LTspice 24.0.12 for Windows
Circuit: * G:\Mi unidad\KICAD_Projects\Fuente-Variable-con-Microcontrolador-\Simulaciones\FusibleElectronico.asc
Start Time: Fri Nov  7 22:43:41 2025
solver = Normal
Maximum thread count: 2
tnom = 27
temp = 27
method = modified trap
