LTspice 24.1.8 for Windows
Circuit: G:\Mi unidad\KICAD_Projects\Fuente-Variable-con-Microcontrolador-\Simulaciones\PuenteDiodos.net
Start Time: Wed Nov 12 00:30:47 2025
solver = Normal
Maximum thread count: 4
tnom = 27
temp = 27
method = trap
.OP point found by inspection.
Total elapsed time: 1.360 seconds.

Files loaded:
G:\Mi unidad\KICAD_Projects\Fuente-Variable-con-Microcontrolador-\Simulaciones\PuenteDiodos.net
C:\Users\EmanuelDecima\AppData\Local\LTspice\lib\cmp\standard.dio

